LAMMPS (3 Mar 2020)
# Dimer - Test

dimension		3
boundary		p p p

units			real

atom_style		charge
read_data		dimer.dat
  orthogonal box = (0 0 0) to (28.5 28.5 28.5)
  reading atoms ...
  1980 atoms

pair_style 		reax/c lmp_control
pair_coeff 		* * ffield.reax.hns C H

neighbor		2 bin
neigh_modify	every 10 delay 0 check no

fix				1 all nve
fix				2 all qeq/reax 1 0.0 10.0 1e-6 reax/c
fix				3 all temp/berendsen 400.0 400.0 100.0

timestep    0.25
thermo      100

dump xyzdump all xyz 50 dump_dimer.xyz

run 50000
  update every 10 steps, delay 0 steps, check no
Step Temp E_pair E_mol TotEng Press
0            0    -258109.9            0    -258109.9    306555.93
Averages over the last 251 of 501 rows, steps 25000 to 50000:
Temp E_pair E_mol TotEng Press
399.997 -259976 0 -257616 -704.664
Loop time of 8743.9 on 1 procs for 50000 steps with 1980 atoms

minimize 0.0 1.0e-1 1000 10000
Step Temp E_pair E_mol TotEng Press
50000    399.32345   -259988.21            0   -257632.59   -3336.7946
Averages over the last 6 of 11 rows, steps 50500 to 51000:
Temp E_pair E_mol TotEng Press
399.323 -262346 0 -259990 1937.53
Loop time of 1452.1 on 1 procs for 1000 steps with 1980 atoms

Minimization stats:
  Stopping criterion = max iterations
  Energy initial, next-to-last, final =
  Force two-norm initial, final = 2849.11 33.6509
  Force max component initial, final = 209.21 9.79699
  Final line search alpha, max atom move = 0.00012753 0.00124941
  Iterations, force evaluations = 1000 6757

Please see the log.cite file for references relevant to this simulation
